/*--------------------------------*- C++ -*----------------------------------*\
| =========                 |                                                 |
| \\      /  F ield         | OpenFOAM: The Open Source CFD Toolbox           |
|  \\    /   O peration     | Version:  2312                                  |
|   \\  /    A nd           | Website:  www.openfoam.com                      |
|    \\/     M anipulation  |                                                 |
\*---------------------------------------------------------------------------*/
FoamFile
{
    version     2.0;
    format      ascii;
    arch        "LSB;label=32;scalar=64";
    class       polyBoundaryMesh;
    location    "constant/polyMesh";
    object      boundary;
}
// * * * * * * * * * * * * * * * * * * * * * * * * * * * * * * * * * * * * * //

6
(
    inlet
    {
        type            patch;
        nFaces          20;
        startFace       7780;
    }
    outlet
    {
        type            patch;
        nFaces          20;
        startFace       7800;
    }
    wall
    {
        type            wall;
        inGroups        1(wall);
        nFaces          200;
        startFace       7820;
    }
    wedge1
    {
        type            wedge;
        inGroups        1(wedge);
        nFaces          4000;
        startFace       8020;
    }
    wedge2
    {
        type            wedge;
        inGroups        1(wedge);
        nFaces          4000;
        startFace       12020;
    }
    defaultFaces
    {
        type            empty;
        inGroups        1(empty);
        nFaces          0;
        startFace       16020;
    }
)

// ************************************************************************* //
